  50
Step 2
  P     -0.25281764      3.45706537     -0.32396344
 Co      0.76577277      3.45587577     -2.34020968
  C      0.46038303      2.32955228      1.03060676
  C     -0.85457171      4.88472938      0.79574109
  C     -2.36913937      3.04160144     -4.29659689
  P     -0.91709481      2.30787469     -3.29540631
  C     -0.65579847      0.70610110     -4.28426246
  C     -1.96035361      2.59772979     -0.63110229
  C     -1.88144166      1.58561558     -1.78045466
  H     -1.32295231      0.69453292     -1.46961277
  H     -2.88262909      1.26376849     -2.09541324
  H     -2.66782023      3.40060673     -0.87766524
  H     -2.31011194      2.12340409      0.29495794
  H     -1.58661980      0.13729772     -4.38908736
  H      0.09237428      0.10014546     -3.76705065
  H     -0.27227664      0.95808007     -5.27706704
  H      0.67602986      1.35309944      0.59058930
  H     -0.23666726      2.21660387      1.86866444
  H      1.39937363      2.75866372      1.39200104
  H     -1.46396223      5.57787002      0.20982901
  H      0.01224255      5.42528646      1.18792615
  H     -1.44918391      4.50678270      1.63582018
  H      1.14088905      2.04453397     -1.92602607
  C      0.11167309      5.90142488     -4.93982802
  P      0.59536052      5.58642296     -3.12547082
  C     -0.37375028      7.00150975     -2.30414591
  H     -1.44740409      6.81544801     -2.40320232
  H     -0.13514038      7.96468072     -2.76747423
  H     -0.12272259      7.03646726     -1.24134080
  C      2.36670762      6.33885519     -3.10790505
  H      2.39867116      7.21975613     -3.76130239
  H      2.55494240      6.67392582     -2.08043935
  C      3.39088934      5.27729266     -3.52489036
  H      3.35492373      5.11232025     -4.60855345
  H      4.41400680      5.57486157     -3.26656652
  P      2.94870090      3.59633282     -2.69243670
  C      3.89128408      2.38436950     -3.81484706
  H      3.42101137      2.37493667     -4.80169429
  H      4.94762931      2.66060157     -3.91047341
  H      3.81619790      1.38115933     -3.38643317
  C      4.15166016      3.59005994     -1.21083325
  H      3.88184223      4.40109524     -0.52873145
  H      4.04290706      2.64146790     -0.67716250
  H      5.19199942      3.71015373     -1.53470899
  H      0.19915459      6.96274197     -5.19747309
  H     -0.91737525      5.57156244     -5.10302203
  H      0.76821015      5.31229956     -5.58583940
  H     -2.01445105      3.35123068     -5.28442049
  H     -2.75524052      3.92054209     -3.77252907
  H     -3.17702212      2.31226030     -4.42202370
