  8

 Pd      0.00913921      0.04254598     -0.20069055
 Cl      0.13330020     -2.29461252     -0.02177273
 Cl      2.40200881      0.28539184     -0.35711715
 Cl     -0.12270660      0.42052696      2.12141504
 Cl     -2.39087793      0.06095274     -0.46344748
  O     -0.10799694      2.12227075     -0.61562742
  H     -0.96669406      2.56345367     -0.47110351
  H      0.68803109      2.66558645     -0.46191062


